<?xml version="1.0" encoding="UTF-8"?>

<!-- generated on 2025-03-16 02:55:09 by Eclipse SUMO netconvert Version 1.22.0
<netconvertConfiguration xmlns:xsi="http://www.w3.org/2001/XMLSchema-instance" xsi:noNamespaceSchemaLocation="http://sumo.dlr.de/xsd/netconvertConfiguration.xsd">

    <input>
        <node-files value="intersection.nod.xml"/>
        <edge-files value="intersection.edg.xml"/>
        <connection-files value="intersection.con.xml"/>
    </input>

    <output>
        <output-file value="intersection.net.xml"/>
    </output>

</netconvertConfiguration>
-->

<net version="1.20" junctionCornerDetail="5" limitTurnSpeed="5.50" xmlns:xsi="http://www.w3.org/2001/XMLSchema-instance" xsi:noNamespaceSchemaLocation="http://sumo.dlr.de/xsd/net_file.xsd">

    <location netOffset="0.00,0.00" convBoundary="0.00,0.00,1000.00,1000.00" origBoundary="0.00,0.00,1000.00,1000.00" projParameter="!"/>

    <edge id=":n0_0" function="internal">
        <lane id=":n0_0_0" index="0" speed="13.90" length="20.80" shape="495.20,510.40 495.20,489.60"/>
    </edge>
    <edge id=":n0_1" function="internal">
        <lane id=":n0_1_0" index="0" speed="8.00" length="4.07" shape="498.40,510.40 497.85,506.55 497.76,506.40"/>
    </edge>
    <edge id=":n0_2" function="internal">
        <lane id=":n0_2_0" index="0" speed="9.26" length="10.42" shape="498.40,510.40 499.15,505.15 501.40,501.40 502.04,501.02"/>
    </edge>
    <edge id=":n0_12" function="internal">
        <lane id=":n0_12_0" index="0" speed="8.00" length="10.13" shape="497.76,506.40 496.20,503.80 493.45,502.15 489.60,501.60"/>
    </edge>
    <edge id=":n0_13" function="internal">
        <lane id=":n0_13_0" index="0" speed="9.26" length="8.93" shape="502.04,501.02 505.15,499.15 510.40,498.40"/>
    </edge>
    <edge id=":n0_3" function="internal">
        <lane id=":n0_3_0" index="0" speed="13.90" length="20.80" shape="510.40,504.80 489.60,504.80"/>
    </edge>
    <edge id=":n0_4" function="internal">
        <lane id=":n0_4_0" index="0" speed="8.00" length="4.07" shape="510.40,501.60 506.55,502.15 506.40,502.24"/>
    </edge>
    <edge id=":n0_5" function="internal">
        <lane id=":n0_5_0" index="0" speed="9.26" length="10.42" shape="510.40,501.60 505.15,500.85 501.40,498.60 501.02,497.96"/>
    </edge>
    <edge id=":n0_14" function="internal">
        <lane id=":n0_14_0" index="0" speed="8.00" length="10.13" shape="506.40,502.24 503.80,503.80 502.15,506.55 501.60,510.40"/>
    </edge>
    <edge id=":n0_15" function="internal">
        <lane id=":n0_15_0" index="0" speed="9.26" length="8.93" shape="501.02,497.96 499.15,494.85 498.40,489.60"/>
    </edge>
    <edge id=":n0_6" function="internal">
        <lane id=":n0_6_0" index="0" speed="13.90" length="20.80" shape="504.80,489.60 504.80,510.40"/>
    </edge>
    <edge id=":n0_7" function="internal">
        <lane id=":n0_7_0" index="0" speed="8.00" length="4.07" shape="501.60,489.60 502.15,493.45 502.24,493.60"/>
    </edge>
    <edge id=":n0_8" function="internal">
        <lane id=":n0_8_0" index="0" speed="9.26" length="10.42" shape="501.60,489.60 500.85,494.85 498.60,498.60 497.96,498.98"/>
    </edge>
    <edge id=":n0_16" function="internal">
        <lane id=":n0_16_0" index="0" speed="8.00" length="10.13" shape="502.24,493.60 503.80,496.20 506.55,497.85 510.40,498.40"/>
    </edge>
    <edge id=":n0_17" function="internal">
        <lane id=":n0_17_0" index="0" speed="9.26" length="8.93" shape="497.96,498.98 494.85,500.85 489.60,501.60"/>
    </edge>
    <edge id=":n0_9" function="internal">
        <lane id=":n0_9_0" index="0" speed="13.90" length="20.80" shape="489.60,495.20 510.40,495.20"/>
    </edge>
    <edge id=":n0_10" function="internal">
        <lane id=":n0_10_0" index="0" speed="8.00" length="4.07" shape="489.60,498.40 493.45,497.85 493.60,497.76"/>
    </edge>
    <edge id=":n0_11" function="internal">
        <lane id=":n0_11_0" index="0" speed="9.26" length="10.42" shape="489.60,498.40 494.85,499.15 498.60,501.40 498.98,502.04"/>
    </edge>
    <edge id=":n0_18" function="internal">
        <lane id=":n0_18_0" index="0" speed="8.00" length="10.13" shape="493.60,497.76 496.20,496.20 497.85,493.45 498.40,489.60"/>
    </edge>
    <edge id=":n0_19" function="internal">
        <lane id=":n0_19_0" index="0" speed="9.26" length="8.93" shape="498.98,502.04 500.85,505.15 501.60,510.40"/>
    </edge>
    <edge id=":n1_0" function="internal">
        <lane id=":n1_0_0" index="0" speed="3.65" length="4.67" shape="0.00,501.60 -1.20,500.80 -1.60,500.00 -1.20,499.20 0.00,498.40"/>
    </edge>
    <edge id=":n2_0" function="internal">
        <lane id=":n2_0_0" index="0" speed="3.65" length="4.67" shape="1000.00,498.40 1001.20,499.20 1001.60,500.00 1001.20,500.80 1000.00,501.60"/>
    </edge>
    <edge id=":n3_0" function="internal">
        <lane id=":n3_0_0" index="0" speed="3.65" length="4.67" shape="498.40,0.00 499.20,-1.20 500.00,-1.60 500.80,-1.20 501.60,0.00"/>
    </edge>
    <edge id=":n4_0" function="internal">
        <lane id=":n4_0_0" index="0" speed="3.65" length="4.67" shape="501.60,1000.00 500.80,1001.20 500.00,1001.60 499.20,1001.20 498.40,1000.00"/>
    </edge>

    <edge id="E1_in" from="n1" to="n0" priority="-1">
        <lane id="E1_in_0" index="0" speed="13.90" length="489.60" shape="0.00,495.20 489.60,495.20"/>
        <lane id="E1_in_1" index="1" speed="13.90" length="489.60" shape="0.00,498.40 489.60,498.40"/>
    </edge>
    <edge id="E1_out" from="n0" to="n1" priority="-1">
        <lane id="E1_out_0" index="0" speed="13.90" length="489.60" shape="489.60,504.80 0.00,504.80"/>
        <lane id="E1_out_1" index="1" speed="13.90" length="489.60" shape="489.60,501.60 0.00,501.60"/>
    </edge>
    <edge id="E2_in" from="n2" to="n0" priority="-1">
        <lane id="E2_in_0" index="0" speed="13.90" length="489.60" shape="1000.00,504.80 510.40,504.80"/>
        <lane id="E2_in_1" index="1" speed="13.90" length="489.60" shape="1000.00,501.60 510.40,501.60"/>
    </edge>
    <edge id="E2_out" from="n0" to="n2" priority="-1">
        <lane id="E2_out_0" index="0" speed="13.90" length="489.60" shape="510.40,495.20 1000.00,495.20"/>
        <lane id="E2_out_1" index="1" speed="13.90" length="489.60" shape="510.40,498.40 1000.00,498.40"/>
    </edge>
    <edge id="E3_in" from="n3" to="n0" priority="-1">
        <lane id="E3_in_0" index="0" speed="13.90" length="489.60" shape="504.80,0.00 504.80,489.60"/>
        <lane id="E3_in_1" index="1" speed="13.90" length="489.60" shape="501.60,0.00 501.60,489.60"/>
    </edge>
    <edge id="E3_out" from="n0" to="n3" priority="-1">
        <lane id="E3_out_0" index="0" speed="13.90" length="489.60" shape="495.20,489.60 495.20,0.00"/>
        <lane id="E3_out_1" index="1" speed="13.90" length="489.60" shape="498.40,489.60 498.40,0.00"/>
    </edge>
    <edge id="E4_in" from="n4" to="n0" priority="-1">
        <lane id="E4_in_0" index="0" speed="13.90" length="489.60" shape="495.20,1000.00 495.20,510.40"/>
        <lane id="E4_in_1" index="1" speed="13.90" length="489.60" shape="498.40,1000.00 498.40,510.40"/>
    </edge>
    <edge id="E4_out" from="n0" to="n4" priority="-1">
        <lane id="E4_out_0" index="0" speed="13.90" length="489.60" shape="504.80,510.40 504.80,1000.00"/>
        <lane id="E4_out_1" index="1" speed="13.90" length="489.60" shape="501.60,510.40 501.60,1000.00"/>
    </edge>

    <tlLogic id="n0" type="static" programID="0" offset="0">
        <phase duration="42" state="GggrrrGggrrr"/>
        <phase duration="3"  state="yyyrrryyyrrr"/>
        <phase duration="42" state="rrrGggrrrGgg"/>
        <phase duration="3"  state="rrryyyrrryyy"/>
    </tlLogic>

    <junction id="n0" type="traffic_light" x="500.00" y="500.00" incLanes="E4_in_0 E4_in_1 E2_in_0 E2_in_1 E3_in_0 E3_in_1 E1_in_0 E1_in_1" intLanes=":n0_0_0 :n0_12_0 :n0_13_0 :n0_3_0 :n0_14_0 :n0_15_0 :n0_6_0 :n0_16_0 :n0_17_0 :n0_9_0 :n0_18_0 :n0_19_0" shape="493.60,510.40 506.40,510.40 506.84,508.18 507.40,507.40 508.18,506.84 509.18,506.51 510.40,506.40 510.40,493.60 508.18,493.16 507.40,492.60 506.84,491.82 506.51,490.82 506.40,489.60 493.60,489.60 493.16,491.82 492.60,492.60 491.82,493.16 490.82,493.49 489.60,493.60 489.60,506.40 491.82,506.84 492.60,507.40 493.16,508.18 493.49,509.18">
        <request index="0"  response="110000000000" foes="111100001010" cont="0"/>
        <request index="1"  response="000000000001" foes="000100001001" cont="1"/>
        <request index="2"  response="100011100000" foes="100011101000" cont="1"/>
        <request index="3"  response="000001000111" foes="100001010111" cont="0"/>
        <request index="4"  response="000001001000" foes="100001001000" cont="1"/>
        <request index="5"  response="011101000100" foes="011101000100" cont="1"/>
        <request index="6"  response="000000110000" foes="001010111100" cont="0"/>
        <request index="7"  response="000001000000" foes="001001000100" cont="1"/>
        <request index="8"  response="100000100011" foes="101000100011" cont="1"/>
        <request index="9"  response="000111000001" foes="010111100001" cont="0"/>
        <request index="10" response="001000000001" foes="001000100001" cont="1"/>
        <request index="11" response="000100011101" foes="000100011101" cont="1"/>
    </junction>
    <junction id="n1" type="priority" x="0.00" y="500.00" incLanes="E1_out_0 E1_out_1" intLanes=":n1_0_0" shape="0.00,500.00 0.00,506.40 0.00,500.00">
        <request index="0" response="0" foes="0" cont="0"/>
    </junction>
    <junction id="n2" type="priority" x="1000.00" y="500.00" incLanes="E2_out_0 E2_out_1" intLanes=":n2_0_0" shape="1000.00,500.00 1000.00,493.60 1000.00,500.00">
        <request index="0" response="0" foes="0" cont="0"/>
    </junction>
    <junction id="n3" type="priority" x="500.00" y="0.00" incLanes="E3_out_0 E3_out_1" intLanes=":n3_0_0" shape="500.00,0.00 493.60,0.00 500.00,0.00">
        <request index="0" response="0" foes="0" cont="0"/>
    </junction>
    <junction id="n4" type="priority" x="500.00" y="1000.00" incLanes="E4_out_0 E4_out_1" intLanes=":n4_0_0" shape="500.00,1000.00 506.40,1000.00 500.00,1000.00">
        <request index="0" response="0" foes="0" cont="0"/>
    </junction>

    <junction id=":n0_12_0" type="internal" x="497.76" y="506.40" incLanes=":n0_1_0 E4_in_0" intLanes=":n0_0_0 :n0_3_0 :n0_8_0"/>
    <junction id=":n0_13_0" type="internal" x="502.04" y="501.02" incLanes=":n0_2_0 E3_in_0 E3_in_1" intLanes=":n0_3_0 :n0_5_0 :n0_6_0 :n0_7_0 :n0_9_0 :n0_11_0"/>
    <junction id=":n0_14_0" type="internal" x="506.40" y="502.24" incLanes=":n0_4_0 E2_in_0" intLanes=":n0_3_0 :n0_6_0 :n0_11_0"/>
    <junction id=":n0_15_0" type="internal" x="501.02" y="497.96" incLanes=":n0_5_0 E1_in_0 E1_in_1" intLanes=":n0_0_0 :n0_2_0 :n0_6_0 :n0_8_0 :n0_9_0 :n0_10_0"/>
    <junction id=":n0_16_0" type="internal" x="502.24" y="493.60" incLanes=":n0_7_0 E3_in_0" intLanes=":n0_2_0 :n0_6_0 :n0_9_0"/>
    <junction id=":n0_17_0" type="internal" x="497.96" y="498.98" incLanes=":n0_8_0 E4_in_0 E4_in_1" intLanes=":n0_0_0 :n0_1_0 :n0_3_0 :n0_5_0 :n0_9_0 :n0_11_0"/>
    <junction id=":n0_18_0" type="internal" x="493.60" y="497.76" incLanes=":n0_10_0 E1_in_0" intLanes=":n0_0_0 :n0_5_0 :n0_9_0"/>
    <junction id=":n0_19_0" type="internal" x="498.98" y="502.04" incLanes=":n0_11_0 E2_in_0 E2_in_1" intLanes=":n0_0_0 :n0_2_0 :n0_3_0 :n0_4_0 :n0_6_0 :n0_8_0"/>

    <connection from="E1_in" to="E2_out" fromLane="0" toLane="0" via=":n0_9_0" tl="n0" linkIndex="9" dir="s" state="o"/>
    <connection from="E1_in" to="E3_out" fromLane="1" toLane="1" via=":n0_10_0" tl="n0" linkIndex="10" dir="r" state="o"/>
    <connection from="E1_in" to="E4_out" fromLane="1" toLane="1" via=":n0_11_0" tl="n0" linkIndex="11" dir="l" state="o"/>
    <connection from="E1_out" to="E1_in" fromLane="1" toLane="1" via=":n1_0_0" dir="t" state="M"/>
    <connection from="E2_in" to="E1_out" fromLane="0" toLane="0" via=":n0_3_0" tl="n0" linkIndex="3" dir="s" state="o"/>
    <connection from="E2_in" to="E4_out" fromLane="1" toLane="1" via=":n0_4_0" tl="n0" linkIndex="4" dir="r" state="o"/>
    <connection from="E2_in" to="E3_out" fromLane="1" toLane="1" via=":n0_5_0" tl="n0" linkIndex="5" dir="l" state="o"/>
    <connection from="E2_out" to="E2_in" fromLane="1" toLane="1" via=":n2_0_0" dir="t" state="M"/>
    <connection from="E3_in" to="E4_out" fromLane="0" toLane="0" via=":n0_6_0" tl="n0" linkIndex="6" dir="s" state="O"/>
    <connection from="E3_in" to="E2_out" fromLane="1" toLane="1" via=":n0_7_0" tl="n0" linkIndex="7" dir="r" state="o"/>
    <connection from="E3_in" to="E1_out" fromLane="1" toLane="1" via=":n0_8_0" tl="n0" linkIndex="8" dir="l" state="o"/>
    <connection from="E3_out" to="E3_in" fromLane="1" toLane="1" via=":n3_0_0" dir="t" state="M"/>
    <connection from="E4_in" to="E3_out" fromLane="0" toLane="0" via=":n0_0_0" tl="n0" linkIndex="0" dir="s" state="O"/>
    <connection from="E4_in" to="E1_out" fromLane="1" toLane="1" via=":n0_1_0" tl="n0" linkIndex="1" dir="r" state="o"/>
    <connection from="E4_in" to="E2_out" fromLane="1" toLane="1" via=":n0_2_0" tl="n0" linkIndex="2" dir="l" state="o"/>
    <connection from="E4_out" to="E4_in" fromLane="1" toLane="1" via=":n4_0_0" dir="t" state="M"/>

    <connection from=":n0_0" to="E3_out" fromLane="0" toLane="0" dir="s" state="M"/>
    <connection from=":n0_1" to="E1_out" fromLane="0" toLane="1" via=":n0_12_0" dir="r" state="m"/>
    <connection from=":n0_12" to="E1_out" fromLane="0" toLane="1" dir="r" state="M"/>
    <connection from=":n0_2" to="E2_out" fromLane="0" toLane="1" via=":n0_13_0" dir="l" state="m"/>
    <connection from=":n0_13" to="E2_out" fromLane="0" toLane="1" dir="l" state="M"/>
    <connection from=":n0_3" to="E1_out" fromLane="0" toLane="0" dir="s" state="M"/>
    <connection from=":n0_4" to="E4_out" fromLane="0" toLane="1" via=":n0_14_0" dir="r" state="m"/>
    <connection from=":n0_14" to="E4_out" fromLane="0" toLane="1" dir="r" state="M"/>
    <connection from=":n0_5" to="E3_out" fromLane="0" toLane="1" via=":n0_15_0" dir="l" state="m"/>
    <connection from=":n0_15" to="E3_out" fromLane="0" toLane="1" dir="l" state="M"/>
    <connection from=":n0_6" to="E4_out" fromLane="0" toLane="0" dir="s" state="M"/>
    <connection from=":n0_7" to="E2_out" fromLane="0" toLane="1" via=":n0_16_0" dir="r" state="m"/>
    <connection from=":n0_16" to="E2_out" fromLane="0" toLane="1" dir="r" state="M"/>
    <connection from=":n0_8" to="E1_out" fromLane="0" toLane="1" via=":n0_17_0" dir="l" state="m"/>
    <connection from=":n0_17" to="E1_out" fromLane="0" toLane="1" dir="l" state="M"/>
    <connection from=":n0_9" to="E2_out" fromLane="0" toLane="0" dir="s" state="M"/>
    <connection from=":n0_10" to="E3_out" fromLane="0" toLane="1" via=":n0_18_0" dir="r" state="m"/>
    <connection from=":n0_18" to="E3_out" fromLane="0" toLane="1" dir="r" state="M"/>
    <connection from=":n0_11" to="E4_out" fromLane="0" toLane="1" via=":n0_19_0" dir="l" state="m"/>
    <connection from=":n0_19" to="E4_out" fromLane="0" toLane="1" dir="l" state="M"/>
    <connection from=":n1_0" to="E1_in" fromLane="0" toLane="1" dir="t" state="M"/>
    <connection from=":n2_0" to="E2_in" fromLane="0" toLane="1" dir="t" state="M"/>
    <connection from=":n3_0" to="E3_in" fromLane="0" toLane="1" dir="t" state="M"/>
    <connection from=":n4_0" to="E4_in" fromLane="0" toLane="1" dir="t" state="M"/>

</net>
