<?xml version="1.0" encoding="UTF-8"?>
<routes>
    <!-- Vehicle type definition -->
    <vType id="car" accel="2.6" decel="4.5" sigma="0.5" length="5" maxSpeed="15"/>

    <!-- Route definitions (only straight routes for simplicity) -->
    <route id="route_E2TL_EW_straight" edges="E2TL TL2W"/>
    <route id="route_W2TL_WE_straight" edges="W2TL TL2E"/>
    <route id="route_N2TL_NS_straight" edges="N2TL TL2S"/>
    <route id="route_S2TL_SN_straight" edges="S2TL TL2N"/>

    <!-- 20 cars on line A (E2TL, east-to-west straight) -->
    <vehicle id="carA_0" type="car" route="route_E2TL_EW_straight" depart="0" departLane="1" departPos="0" departSpeed="0"/>
    <vehicle id="carA_1" type="car" route="route_E2TL_EW_straight" depart="0" departLane="1" departPos="10" departSpeed="0"/>
    <vehicle id="carA_2" type="car" route="route_E2TL_EW_straight" depart="0" departLane="1" departPos="20" departSpeed="0"/>
    <!-- <vehicle id="carA_3" type="car" route="route_E2TL_EW_straight" depart="0" departLane="1" departPos="30" departSpeed="0"/>
    <vehicle id="carA_4" type="car" route="route_E2TL_EW_straight" depart="0" departLane="1" departPos="40" departSpeed="0"/>
    <vehicle id="carA_5" type="car" route="route_E2TL_EW_straight" depart="0" departLane="1" departPos="50" departSpeed="0"/>
    <vehicle id="carA_6" type="car" route="route_E2TL_EW_straight" depart="0" departLane="1" departPos="60" departSpeed="0"/>
    <vehicle id="carA_7" type="car" route="route_E2TL_EW_straight" depart="0" departLane="1" departPos="70" departSpeed="0"/>
    <vehicle id="carA_8" type="car" route="route_E2TL_EW_straight" depart="0" departLane="1" departPos="80" departSpeed="0"/>
    <vehicle id="carA_9" type="car" route="route_E2TL_EW_straight" depart="0" departLane="1" departPos="90" departSpeed="0"/>
    <vehicle id="carA_10" type="car" route="route_E2TL_EW_straight" depart="0" departLane="2" departPos="0" departSpeed="0"/>
    <vehicle id="carA_11" type="car" route="route_E2TL_EW_straight" depart="0" departLane="2" departPos="10" departSpeed="0"/>
    <vehicle id="carA_12" type="car" route="route_E2TL_EW_straight" depart="0" departLane="2" departPos="20" departSpeed="0"/>
    <vehicle id="carA_13" type="car" route="route_E2TL_EW_straight" depart="0" departLane="2" departPos="30" departSpeed="0"/>
    <vehicle id="carA_14" type="car" route="route_E2TL_EW_straight" depart="0" departLane="2" departPos="40" departSpeed="0"/>
    <vehicle id="carA_15" type="car" route="route_E2TL_EW_straight" depart="0" departLane="2" departPos="50" departSpeed="0"/>
    <vehicle id="carA_16" type="car" route="route_E2TL_EW_straight" depart="0" departLane="2" departPos="60" departSpeed="0"/>
    <vehicle id="carA_17" type="car" route="route_E2TL_EW_straight" depart="0" departLane="2" departPos="70" departSpeed="0"/>
    <vehicle id="carA_18" type="car" route="route_E2TL_EW_straight" depart="0" departLane="2" departPos="80" departSpeed="0"/>
    <vehicle id="carA_19" type="car" route="route_E2TL_EW_straight" depart="0" departLane="2" departPos="90" departSpeed="0"/> -->

    <!-- 4 cars on W2TL (west-to-east straight) -->
    <vehicle id="carB_0" type="car" route="route_W2TL_WE_straight" depart="0" departLane="1" departPos="0" departSpeed="0"/>
    <vehicle id="carB_1" type="car" route="route_W2TL_WE_straight" depart="0" departLane="1" departPos="10" departSpeed="0"/>
    <vehicle id="carB_2" type="car" route="route_W2TL_WE_straight" depart="0" departLane="2" departPos="0" departSpeed="0"/>
    <vehicle id="carB_3" type="car" route="route_W2TL_WE_straight" depart="0" departLane="2" departPos="10" departSpeed="0"/>

    <!-- 3 cars on N2TL (north-to-south straight) -->
    <vehicle id="carC_0" type="car" route="route_N2TL_NS_straight" depart="0" departLane="1" departPos="0" departSpeed="0"/>
    <vehicle id="carC_1" type="car" route="route_N2TL_NS_straight" depart="0" departLane="1" departPos="10" departSpeed="0"/>
    <vehicle id="carC_2" type="car" route="route_N2TL_NS_straight" depart="0" departLane="2" departPos="0" departSpeed="0"/>
    <!-- 3 cars on S2TL (south-to-north straight) -->
    <vehicle id="carD_0" type="car" route="route_S2TL_SN_straight" depart="0" departLane="1" departPos="0" departSpeed="0"/>
    <vehicle id="carD_1" type="car" route="route_S2TL_SN_straight" depart="0" departLane="1" departPos="10" departSpeed="0"/>
    <vehicle id="carD_2" type="car" route="route_S2TL_SN_straight" depart="0" departLane="2" departPos="0" departSpeed="0"/>
</routes>