<?xml version="1.0" encoding="UTF-8"?>
<routes xmlns:xsi="http://www.w3.org/2001/XMLSchema-instance" xsi:noNamespaceSchemaLocation="http://sumo.dlr.de/xsd/routes_file.xsd">

    <!-- Vehicle Types -->
    <vType id="car" accel="2.6" decel="4.5" sigma="0.5" length="5.0" minGap="2.5" maxSpeed="13.89" guiShape="passenger"/>

    <!-- Predefined Routes -->
    <!-- East Approaches -->
    <route id="E2TL_EW_straight" edges="E2TL TL2W"/>
    <route id="E2TL_NS_right" edges="E2TL TL2N"/>
    <route id="E2TL_SW_left" edges="E2TL TL2S"/>

    <!-- North Approaches -->
    <route id="N2TL_NS_straight" edges="N2TL TL2S"/>
    <route id="N2TL_WE_right" edges="N2TL TL2W"/>
    <route id="N2TL_ES_left" edges="N2TL TL2E"/>

    <!-- West Approaches -->
    <route id="W2TL_WE_straight" edges="W2TL TL2E"/>
    <route id="W2TL_EN_right" edges="W2TL TL2N"/>
    <route id="W2TL_WS_left" edges="W2TL TL2S"/>

    <!-- South Approaches -->
    <route id="S2TL_SN_straight" edges="S2TL TL2N"/>
    <route id="S2TL_NE_right" edges="S2TL TL2E"/>
    <route id="S2TL_EW_left" edges="S2TL TL2W"/>

    <!-- Sample Vehicle Flow -->
    <flow id="base_flow" type="car" begin="0" end="3600" number="100">
        <route edges="E2TL TL2W"/>  <!-- Default route -->
    </flow>

</routes>