<connections>
    <!-- WEST (E1_in to Intersection) -->
    <connection from="E1_in" to="E2_out" fromLane="0" toLane="0"/>  <!-- Straight (Left Lane) -->
    <connection from="E1_in" to="E2_out" fromLane="1" toLane="1"/>  <!-- Straight (Right Lane) -->
    <connection from="E1_in" to="E4_out" fromLane="1" toLane="1"/>  <!-- Right Turn (Right Lane) -->
    <connection from="E1_in" to="E3_out" fromLane="0" toLane="0"/>  <!-- Left Turn (Left Lane) -->

    <!-- EAST (E2_in to Intersection) -->
    <connection from="E2_in" to="E1_out" fromLane="0" toLane="0"/>  <!-- Straight (Left Lane) -->
    <connection from="E2_in" to="E1_out" fromLane="1" toLane="1"/>  <!-- Straight (Right Lane) -->
    <connection from="E2_in" to="E3_out" fromLane="1" toLane="1"/>  <!-- Right Turn (Right Lane) -->
    <connection from="E2_in" to="E4_out" fromLane="0" toLane="0"/>  <!-- Left Turn (Left Lane) -->

    <!-- SOUTH (E3_in to Intersection) -->
    <connection from="E3_in" to="E4_out" fromLane="0" toLane="0"/>  <!-- Straight (Left Lane) -->
    <connection from="E3_in" to="E4_out" fromLane="1" toLane="1"/>  <!-- Straight (Right Lane) -->
    <connection from="E3_in" to="E1_out" fromLane="1" toLane="1"/>  <!-- Right Turn (Right Lane) -->
    <connection from="E3_in" to="E2_out" fromLane="0" toLane="0"/>  <!-- Left Turn (Left Lane) -->

    <!-- NORTH (E4_in to Intersection) -->
    <connection from="E4_in" to="E3_out" fromLane="0" toLane="0"/>  <!-- Straight (Left Lane) -->
    <connection from="E4_in" to="E3_out" fromLane="1" toLane="1"/>  <!-- Straight (Right Lane) -->
    <connection from="E4_in" to="E2_out" fromLane="1" toLane="1"/>  <!-- Right Turn (Right Lane) -->
    <connection from="E4_in" to="E1_out" fromLane="0" toLane="0"/>  <!-- Left Turn (Left Lane) -->
</connections>

<!-- straight yroholha b2 lanes left ydi lane wright ydi lane  -->