<configuration>
    <input>
        <net-file value="intersection.net.xml"/>
       
        <additional-files value="traffic_lights.add.xml"/>
    </input>
    <time>
        <begin value="0"/>
        <end value="3600"/>
    </time>
</configuration>
