<additional>
    <vType id="car" accel="2.6" decel="4.5" sigma="0.5" length="5" minGap="2.5" maxSpeed="16.67" />
    
    <tlLogic id="n0" type="static" programID="1" offset="0">
        
        <!-- Phase 0: North-South Straight (Controlled by RL) -->
        <phase duration="30" state="GGGrrrrGGGrr"/>  <!-- 12 characters -->
        <!-- Phase 1: Yellow Transition -->
        <phase duration="3"  state="yyyrrrryyyrr"/>  <!-- 12 characters -->

        <!-- Phase 2: North-South Left Turns (Controlled by RL) -->
        <phase duration="20" state="rrrGGGrrrGGG"/>  <!-- 12 characters -->
        <!-- Phase 3: Yellow Transition -->
        <phase duration="3"  state="rrryyyrrryyy"/>  <!-- 12 characters -->

        <!-- Phase 4: East-West Straight (Controlled by RL) -->
        <phase duration="30" state="rrrrGGGrrrrG"/>  <!-- 12 characters -->
        <!-- Phase 5: Yellow Transition -->
        <phase duration="3"  state="rrrryyyrrrry"/>  <!-- 12 characters -->

        <!-- Phase 6: East-West Left Turns (Controlled by RL) -->
        <phase duration="20" state="rrrrrrrGGGrr"/>  <!-- 12 characters -->
        <!-- Phase 7: Yellow Transition -->
        <phase duration="3"  state="rrrrrrryyyrr"/>  <!-- 12 characters -->

    </tlLogic>

</additional>
