<routes>
    <route id="route_E2TL_EW_straight" edges="E2TL TL2W"/>
    <route id="route_E2TL_NS_right" edges="E2TL TL2N"/>
    <route id="route_E2TL_SW_left" edges="E2TL TL2S"/>
    <route id="route_N2TL_NS_straight" edges="N2TL TL2S"/>
    <route id="route_N2TL_WE_right" edges="N2TL TL2W"/>
    <route id="route_N2TL_ES_left" edges="N2TL TL2E"/>
    <route id="route_W2TL_WE_straight" edges="W2TL TL2E"/>
    <route id="route_W2TL_EN_right" edges="W2TL TL2N"/>
    <route id="route_W2TL_WS_left" edges="W2TL TL2S"/>
    <route id="route_S2TL_SN_straight" edges="S2TL TL2N"/>
    <route id="route_S2TL_NE_right" edges="S2TL TL2E"/>
    <route id="route_S2TL_EW_left" edges="S2TL TL2W"/>
    <vehicle id="veh_0" route="route_E2TL_EW_straight" depart="0" departLane="1" departSpeed="11.143645494119848"/>
    <vehicle id="veh_1" route="route_N2TL_WE_right" depart="1" departLane="2" departSpeed="11.148120463803572"/>
    <vehicle id="veh_3" route="route_W2TL_WE_straight" depart="3" departLane="2" departSpeed="7.756586728452795"/>
    <vehicle id="veh_8" route="route_S2TL_SN_straight" depart="8" departLane="1" departSpeed="5.7796492440362615"/>
    <vehicle id="veh_10" route="route_S2TL_NE_right" depart="10" departLane="1" departSpeed="7.570192465266204"/>
    <vehicle id="veh_11" route="route_E2TL_EW_straight" depart="11" departLane="2" departSpeed="9.91094121033218"/>
    <vehicle id="veh_16" route="route_N2TL_ES_left" depart="16" departLane="2" departSpeed="11.719119877965129"/>
    <vehicle id="veh_19" route="route_S2TL_SN_straight" depart="19" departLane="2" departSpeed="11.682093829805417"/>
    <vehicle id="veh_21" route="route_S2TL_NE_right" depart="21" departLane="3" departSpeed="12.447601958579362"/>
    <vehicle id="veh_22" route="route_E2TL_EW_straight" depart="22" departLane="2" departSpeed="9.535926515298595"/>
    <vehicle id="veh_28" route="route_W2TL_WS_left" depart="28" departLane="1" departSpeed="12.316421229482902"/>
    <vehicle id="veh_29" route="route_N2TL_WE_right" depart="29" departLane="3" departSpeed="8.745189755202443"/>
    <vehicle id="veh_31" route="route_E2TL_NS_right" depart="31" departLane="2" departSpeed="7.366542580083437"/>
    <vehicle id="veh_32" route="route_N2TL_ES_left" depart="32" departLane="2" departSpeed="8.765487732045548"/>
    <vehicle id="veh_33" route="route_N2TL_WE_right" depart="33" departLane="0" departSpeed="6.133207643487916"/>
    <vehicle id="veh_34" route="route_S2TL_EW_left" depart="34" departLane="0" departSpeed="5.012772262534049"/>
    <vehicle id="veh_35" route="route_S2TL_EW_left" depart="35" departLane="3" departSpeed="9.215046018373915"/>
    <vehicle id="veh_37" route="route_E2TL_SW_left" depart="37" departLane="3" departSpeed="7.726644205646929"/>
    <vehicle id="veh_42" route="route_W2TL_WS_left" depart="42" departLane="1" departSpeed="5.395107702926642"/>
    <vehicle id="veh_45" route="route_W2TL_WE_straight" depart="45" departLane="2" departSpeed="12.31950055140463"/>
    <vehicle id="veh_53" route="route_E2TL_SW_left" depart="53" departLane="2" departSpeed="8.490631752455599"/>
    <vehicle id="veh_57" route="route_E2TL_NS_right" depart="57" departLane="2" departSpeed="9.473298441258937"/>
    <vehicle id="veh_59" route="route_S2TL_SN_straight" depart="59" departLane="3" departSpeed="9.157119657177155"/>
    <vehicle id="veh_60" route="route_E2TL_EW_straight" depart="60" departLane="0" departSpeed="5.743424415428829"/>
    <vehicle id="veh_62" route="route_E2TL_EW_straight" depart="62" departLane="0" departSpeed="6.956673951641892"/>
    <vehicle id="veh_64" route="route_W2TL_WE_straight" depart="64" departLane="3" departSpeed="7.684377880275765"/>
    <vehicle id="veh_67" route="route_S2TL_SN_straight" depart="67" departLane="2" departSpeed="7.122631516066576"/>
    <vehicle id="veh_70" route="route_N2TL_NS_straight" depart="70" departLane="2" departSpeed="9.877575552640813"/>
    <vehicle id="veh_74" route="route_N2TL_ES_left" depart="74" departLane="2" departSpeed="7.381621609473804"/>
    <vehicle id="veh_80" route="route_S2TL_SN_straight" depart="80" departLane="0" departSpeed="11.874500596328499"/>
    <vehicle id="veh_81" route="route_W2TL_WE_straight" depart="81" departLane="0" departSpeed="9.66746514912764"/>
    <vehicle id="veh_83" route="route_W2TL_WE_straight" depart="83" departLane="3" departSpeed="7.074185516922527"/>
    <vehicle id="veh_84" route="route_S2TL_EW_left" depart="84" departLane="2" departSpeed="7.201056431644623"/>
    <vehicle id="veh_87" route="route_N2TL_WE_right" depart="87" departLane="3" departSpeed="10.100630332446556"/>
    <vehicle id="veh_88" route="route_E2TL_EW_straight" depart="88" departLane="1" departSpeed="11.651517910468522"/>
    <vehicle id="veh_95" route="route_S2TL_EW_left" depart="95" departLane="1" departSpeed="10.562722722169074"/>
    <vehicle id="veh_97" route="route_S2TL_SN_straight" depart="97" departLane="0" departSpeed="7.558890809421761"/>
    <vehicle id="veh_100" route="route_S2TL_EW_left" depart="100" departLane="3" departSpeed="9.439703509191622"/>
    <vehicle id="veh_101" route="route_N2TL_WE_right" depart="101" departLane="2" departSpeed="11.935769957970228"/>
    <vehicle id="veh_103" route="route_W2TL_EN_right" depart="103" departLane="0" departSpeed="11.50941355593676"/>
    <vehicle id="veh_106" route="route_E2TL_SW_left" depart="106" departLane="3" departSpeed="7.656762425133994"/>
    <vehicle id="veh_107" route="route_E2TL_NS_right" depart="107" departLane="0" departSpeed="10.464806709952375"/>
    <vehicle id="veh_111" route="route_N2TL_WE_right" depart="111" departLane="2" departSpeed="6.575866916342368"/>
    <vehicle id="veh_114" route="route_E2TL_NS_right" depart="114" departLane="1" departSpeed="9.527525058132593"/>
    <vehicle id="veh_115" route="route_S2TL_SN_straight" depart="115" departLane="0" departSpeed="6.300099135252675"/>
    <vehicle id="veh_117" route="route_N2TL_NS_straight" depart="117" departLane="1" departSpeed="7.373282442686702"/>
    <vehicle id="veh_118" route="route_N2TL_ES_left" depart="118" departLane="1" departSpeed="10.894092837308847"/>
    <vehicle id="veh_122" route="route_E2TL_NS_right" depart="122" departLane="1" departSpeed="6.5333359873306565"/>
    <vehicle id="veh_123" route="route_S2TL_EW_left" depart="123" departLane="1" departSpeed="11.92566738862753"/>
    <vehicle id="veh_125" route="route_N2TL_ES_left" depart="125" departLane="0" departSpeed="7.73706031361696"/>
    <vehicle id="veh_129" route="route_S2TL_NE_right" depart="129" departLane="2" departSpeed="7.764154612888843"/>
    <vehicle id="veh_132" route="route_W2TL_WS_left" depart="132" departLane="3" departSpeed="12.12392748867289"/>
    <vehicle id="veh_144" route="route_N2TL_ES_left" depart="144" departLane="0" departSpeed="6.729148345335984"/>
    <vehicle id="veh_150" route="route_N2TL_ES_left" depart="150" departLane="1" departSpeed="7.6284968469819425"/>
    <vehicle id="veh_154" route="route_W2TL_WE_straight" depart="154" departLane="0" departSpeed="11.911720863465948"/>
    <vehicle id="veh_155" route="route_E2TL_EW_straight" depart="155" departLane="1" departSpeed="10.951477954461023"/>
    <vehicle id="veh_156" route="route_S2TL_SN_straight" depart="156" departLane="0" departSpeed="7.872775229269249"/>
    <vehicle id="veh_158" route="route_E2TL_NS_right" depart="158" departLane="0" departSpeed="10.526076822644757"/>
    <vehicle id="veh_160" route="route_N2TL_ES_left" depart="160" departLane="1" departSpeed="5.57978080878136"/>
    <vehicle id="veh_172" route="route_N2TL_NS_straight" depart="172" departLane="2" departSpeed="9.739170252162095"/>
    <vehicle id="veh_177" route="route_W2TL_WE_straight" depart="177" departLane="3" departSpeed="10.265845589220891"/>
    <vehicle id="veh_179" route="route_N2TL_ES_left" depart="179" departLane="2" departSpeed="10.265056531504577"/>
    <vehicle id="veh_187" route="route_W2TL_WS_left" depart="187" departLane="3" departSpeed="9.56742550023175"/>
    <vehicle id="veh_190" route="route_N2TL_NS_straight" depart="190" departLane="0" departSpeed="5.550344467356746"/>
    <vehicle id="veh_191" route="route_N2TL_WE_right" depart="191" departLane="3" departSpeed="8.561298005579001"/>
    <vehicle id="veh_199" route="route_E2TL_EW_straight" depart="199" departLane="0" departSpeed="11.971336779460469"/>
    <vehicle id="veh_200" route="route_S2TL_SN_straight" depart="200" departLane="1" departSpeed="7.494181152648271"/>
    <vehicle id="veh_202" route="route_E2TL_EW_straight" depart="202" departLane="1" departSpeed="9.062690986530274"/>
    <vehicle id="veh_205" route="route_N2TL_WE_right" depart="205" departLane="3" departSpeed="8.001876734642126"/>
    <vehicle id="veh_210" route="route_E2TL_EW_straight" depart="210" departLane="2" departSpeed="5.847470918178184"/>
    <vehicle id="veh_211" route="route_E2TL_SW_left" depart="211" departLane="0" departSpeed="6.951160633775427"/>
    <vehicle id="veh_213" route="route_W2TL_WE_straight" depart="213" departLane="3" departSpeed="8.990347836841721"/>
    <vehicle id="veh_215" route="route_W2TL_WS_left" depart="215" departLane="2" departSpeed="7.350039860932742"/>
    <vehicle id="veh_216" route="route_W2TL_EN_right" depart="216" departLane="2" departSpeed="8.776896987268456"/>
    <vehicle id="veh_217" route="route_W2TL_WE_straight" depart="217" departLane="0" departSpeed="9.706287192212137"/>
    <vehicle id="veh_222" route="route_W2TL_WS_left" depart="222" departLane="0" departSpeed="7.736722118256877"/>
    <vehicle id="veh_224" route="route_S2TL_SN_straight" depart="224" departLane="2" departSpeed="8.959726119050332"/>
    <vehicle id="veh_235" route="route_E2TL_SW_left" depart="235" departLane="1" departSpeed="6.239148709030065"/>
    <vehicle id="veh_237" route="route_W2TL_EN_right" depart="237" departLane="0" departSpeed="7.230172951782285"/>
    <vehicle id="veh_239" route="route_W2TL_EN_right" depart="239" departLane="1" departSpeed="12.457092995183817"/>
    <vehicle id="veh_241" route="route_W2TL_EN_right" depart="241" departLane="0" departSpeed="8.256461880792003"/>
    <vehicle id="veh_242" route="route_W2TL_EN_right" depart="242" departLane="1" departSpeed="11.074218290709382"/>
    <vehicle id="veh_247" route="route_N2TL_WE_right" depart="247" departLane="2" departSpeed="6.723717853615938"/>
    <vehicle id="veh_250" route="route_E2TL_SW_left" depart="250" departLane="3" departSpeed="11.62720264765736"/>
    <vehicle id="veh_252" route="route_S2TL_EW_left" depart="252" departLane="0" departSpeed="7.136976555495636"/>
    <vehicle id="veh_254" route="route_S2TL_SN_straight" depart="254" departLane="1" departSpeed="11.63826864308561"/>
    <vehicle id="veh_257" route="route_N2TL_NS_straight" depart="257" departLane="3" departSpeed="10.237086133808768"/>
    <vehicle id="veh_261" route="route_N2TL_NS_straight" depart="261" departLane="1" departSpeed="6.999037376541696"/>
    <vehicle id="veh_263" route="route_S2TL_SN_straight" depart="263" departLane="0" departSpeed="6.409129441646255"/>
    <vehicle id="veh_264" route="route_E2TL_NS_right" depart="264" departLane="2" departSpeed="5.644745067626975"/>
    <vehicle id="veh_271" route="route_E2TL_SW_left" depart="271" departLane="0" departSpeed="5.777711734334205"/>
    <vehicle id="veh_273" route="route_N2TL_WE_right" depart="273" departLane="0" departSpeed="6.171926173769743"/>
    <vehicle id="veh_281" route="route_E2TL_NS_right" depart="281" departLane="0" departSpeed="9.561530328838039"/>
    <vehicle id="veh_283" route="route_S2TL_NE_right" depart="283" departLane="2" departSpeed="7.465187451397167"/>
    <vehicle id="veh_286" route="route_S2TL_EW_left" depart="286" departLane="2" departSpeed="7.580997104002995"/>
    <vehicle id="veh_295" route="route_E2TL_EW_straight" depart="295" departLane="0" departSpeed="7.5941415767874485"/>
    <vehicle id="veh_296" route="route_E2TL_NS_right" depart="296" departLane="2" departSpeed="9.51488034907881"/>
    <vehicle id="veh_297" route="route_W2TL_WE_straight" depart="297" departLane="3" departSpeed="7.479798608681236"/>
    <vehicle id="veh_303" route="route_E2TL_NS_right" depart="303" departLane="3" departSpeed="9.22712634672361"/>
    <vehicle id="veh_304" route="route_S2TL_NE_right" depart="304" departLane="3" departSpeed="5.26988760501352"/>
    <vehicle id="veh_309" route="route_W2TL_EN_right" depart="309" departLane="2" departSpeed="7.516151873908981"/>
    <vehicle id="veh_310" route="route_S2TL_EW_left" depart="310" departLane="1" departSpeed="11.13654671199287"/>
    <vehicle id="veh_313" route="route_E2TL_SW_left" depart="313" departLane="0" departSpeed="5.354528052107581"/>
    <vehicle id="veh_315" route="route_W2TL_EN_right" depart="315" departLane="1" departSpeed="8.92622531935572"/>
    <vehicle id="veh_322" route="route_S2TL_SN_straight" depart="322" departLane="0" departSpeed="11.225522965448311"/>
    <vehicle id="veh_328" route="route_E2TL_NS_right" depart="328" departLane="1" departSpeed="11.241851773506031"/>
    <vehicle id="veh_329" route="route_N2TL_ES_left" depart="329" departLane="1" departSpeed="9.926149011857342"/>
    <vehicle id="veh_340" route="route_E2TL_SW_left" depart="340" departLane="0" departSpeed="12.775762606143182"/>
    <vehicle id="veh_341" route="route_W2TL_EN_right" depart="341" departLane="1" departSpeed="7.346716180691963"/>
    <vehicle id="veh_348" route="route_S2TL_NE_right" depart="348" departLane="3" departSpeed="9.35838319269827"/>
    <vehicle id="veh_349" route="route_E2TL_EW_straight" depart="349" departLane="2" departSpeed="5.132739230181684"/>
    <vehicle id="veh_350" route="route_E2TL_NS_right" depart="350" departLane="2" departSpeed="10.825801513751685"/>
    <vehicle id="veh_352" route="route_S2TL_SN_straight" depart="352" departLane="0" departSpeed="11.785347685742043"/>
    <vehicle id="veh_355" route="route_S2TL_SN_straight" depart="355" departLane="2" departSpeed="7.018233899635545"/>
    <vehicle id="veh_356" route="route_E2TL_NS_right" depart="356" departLane="0" departSpeed="10.827214411696549"/>
    <vehicle id="veh_361" route="route_E2TL_EW_straight" depart="361" departLane="1" departSpeed="12.740033678664396"/>
    <vehicle id="veh_362" route="route_E2TL_EW_straight" depart="362" departLane="2" departSpeed="6.465937894759446"/>
    <vehicle id="veh_364" route="route_N2TL_NS_straight" depart="364" departLane="2" departSpeed="8.436058899587948"/>
    <vehicle id="veh_365" route="route_N2TL_WE_right" depart="365" departLane="2" departSpeed="9.982177311246232"/>
    <vehicle id="veh_367" route="route_W2TL_WE_straight" depart="367" departLane="0" departSpeed="7.74959626557666"/>
    <vehicle id="veh_368" route="route_E2TL_NS_right" depart="368" departLane="0" departSpeed="7.132564886713092"/>
    <vehicle id="veh_369" route="route_W2TL_EN_right" depart="369" departLane="2" departSpeed="11.473744119757688"/>
    <vehicle id="veh_371" route="route_E2TL_SW_left" depart="371" departLane="2" departSpeed="12.795866995427211"/>
    <vehicle id="veh_372" route="route_E2TL_NS_right" depart="372" departLane="2" departSpeed="8.72385976695829"/>
    <vehicle id="veh_373" route="route_W2TL_WE_straight" depart="373" departLane="2" departSpeed="8.168801977720765"/>
    <vehicle id="veh_374" route="route_N2TL_ES_left" depart="374" departLane="0" departSpeed="7.692423110599563"/>
    <vehicle id="veh_375" route="route_S2TL_EW_left" depart="375" departLane="1" departSpeed="5.949018174331841"/>
    <vehicle id="veh_376" route="route_W2TL_WE_straight" depart="376" departLane="0" departSpeed="5.700428756284981"/>
    <vehicle id="veh_377" route="route_E2TL_SW_left" depart="377" departLane="0" departSpeed="7.8400604008112325"/>
    <vehicle id="veh_378" route="route_S2TL_EW_left" depart="378" departLane="0" departSpeed="9.824843108462048"/>
    <vehicle id="veh_380" route="route_E2TL_SW_left" depart="380" departLane="2" departSpeed="5.445955254736565"/>
    <vehicle id="veh_381" route="route_W2TL_WS_left" depart="381" departLane="1" departSpeed="11.032557516003656"/>
    <vehicle id="veh_386" route="route_W2TL_WS_left" depart="386" departLane="2" departSpeed="10.897971177809907"/>
    <vehicle id="veh_388" route="route_E2TL_SW_left" depart="388" departLane="0" departSpeed="5.8293764658475915"/>
    <vehicle id="veh_393" route="route_N2TL_NS_straight" depart="393" departLane="1" departSpeed="11.950330465585559"/>
    <vehicle id="veh_395" route="route_N2TL_WE_right" depart="395" departLane="2" departSpeed="11.0421412779694"/>
    <vehicle id="veh_399" route="route_E2TL_SW_left" depart="399" departLane="1" departSpeed="10.47117447235821"/>
    <vehicle id="veh_401" route="route_E2TL_EW_straight" depart="401" departLane="2" departSpeed="7.888786875361633"/>
    <vehicle id="veh_402" route="route_N2TL_ES_left" depart="402" departLane="1" departSpeed="8.856412316890191"/>
    <vehicle id="veh_403" route="route_W2TL_EN_right" depart="403" departLane="2" departSpeed="9.815420536087867"/>
    <vehicle id="veh_406" route="route_E2TL_SW_left" depart="406" departLane="1" departSpeed="10.021253425211643"/>
    <vehicle id="veh_408" route="route_W2TL_WE_straight" depart="408" departLane="0" departSpeed="8.743758250744566"/>
    <vehicle id="veh_410" route="route_S2TL_NE_right" depart="410" departLane="0" departSpeed="11.540913344295445"/>
    <vehicle id="veh_413" route="route_S2TL_EW_left" depart="413" departLane="3" departSpeed="5.137273142300278"/>
    <vehicle id="veh_414" route="route_E2TL_EW_straight" depart="414" departLane="3" departSpeed="6.980712811928439"/>
    <vehicle id="veh_416" route="route_N2TL_ES_left" depart="416" departLane="1" departSpeed="7.989266634887585"/>
    <vehicle id="veh_417" route="route_E2TL_EW_straight" depart="417" departLane="2" departSpeed="8.798369523402023"/>
    <vehicle id="veh_418" route="route_N2TL_ES_left" depart="418" departLane="0" departSpeed="6.120924376363311"/>
    <vehicle id="veh_422" route="route_E2TL_NS_right" depart="422" departLane="1" departSpeed="7.856443656701"/>
    <vehicle id="veh_423" route="route_N2TL_NS_straight" depart="423" departLane="0" departSpeed="8.760364251284805"/>
    <vehicle id="veh_424" route="route_W2TL_EN_right" depart="424" departLane="0" departSpeed="12.474338581902927"/>
    <vehicle id="veh_429" route="route_S2TL_EW_left" depart="429" departLane="2" departSpeed="5.400065781425951"/>
    <vehicle id="veh_430" route="route_S2TL_SN_straight" depart="430" departLane="1" departSpeed="5.359298131198825"/>
    <vehicle id="veh_431" route="route_N2TL_NS_straight" depart="431" departLane="2" departSpeed="11.436838773278648"/>
    <vehicle id="veh_433" route="route_S2TL_NE_right" depart="433" departLane="3" departSpeed="5.289471074030615"/>
    <vehicle id="veh_436" route="route_W2TL_WS_left" depart="436" departLane="2" departSpeed="12.508540892977521"/>
    <vehicle id="veh_438" route="route_N2TL_ES_left" depart="438" departLane="0" departSpeed="10.767617021481533"/>
    <vehicle id="veh_442" route="route_S2TL_EW_left" depart="442" departLane="3" departSpeed="12.64624103824664"/>
    <vehicle id="veh_444" route="route_S2TL_EW_left" depart="444" departLane="0" departSpeed="7.7792333683800265"/>
    <vehicle id="veh_448" route="route_S2TL_NE_right" depart="448" departLane="0" departSpeed="11.695284565954658"/>
    <vehicle id="veh_453" route="route_E2TL_NS_right" depart="453" departLane="1" departSpeed="7.175900436750564"/>
    <vehicle id="veh_454" route="route_S2TL_NE_right" depart="454" departLane="1" departSpeed="5.095764524580731"/>
    <vehicle id="veh_457" route="route_E2TL_EW_straight" depart="457" departLane="3" departSpeed="10.773201708533371"/>
    <vehicle id="veh_464" route="route_N2TL_ES_left" depart="464" departLane="1" departSpeed="7.201204375533728"/>
    <vehicle id="veh_467" route="route_E2TL_NS_right" depart="467" departLane="0" departSpeed="6.9983994830043"/>
    <vehicle id="veh_469" route="route_N2TL_ES_left" depart="469" departLane="3" departSpeed="6.168239310605468"/>
    <vehicle id="veh_471" route="route_N2TL_ES_left" depart="471" departLane="3" departSpeed="12.120079513650246"/>
    <vehicle id="veh_474" route="route_W2TL_WS_left" depart="474" departLane="2" departSpeed="8.054947644448106"/>
    <vehicle id="veh_476" route="route_S2TL_NE_right" depart="476" departLane="3" departSpeed="11.597308464964314"/>
    <vehicle id="veh_478" route="route_E2TL_EW_straight" depart="478" departLane="0" departSpeed="6.357327858129783"/>
    <vehicle id="veh_480" route="route_W2TL_WS_left" depart="480" departLane="1" departSpeed="7.671459404395268"/>
    <vehicle id="veh_481" route="route_N2TL_WE_right" depart="481" departLane="3" departSpeed="5.191696710871629"/>
    <vehicle id="veh_483" route="route_S2TL_NE_right" depart="483" departLane="1" departSpeed="11.168600831027563"/>
    <vehicle id="veh_487" route="route_E2TL_NS_right" depart="487" departLane="0" departSpeed="7.780146774742085"/>
    <vehicle id="veh_490" route="route_N2TL_NS_straight" depart="490" departLane="2" departSpeed="5.837583733122524"/>
    <vehicle id="veh_491" route="route_N2TL_ES_left" depart="491" departLane="2" departSpeed="5.535068559858069"/>
    <vehicle id="veh_493" route="route_W2TL_EN_right" depart="493" departLane="0" departSpeed="5.682390518382742"/>
    <vehicle id="veh_497" route="route_S2TL_NE_right" depart="497" departLane="1" departSpeed="10.296475240207382"/>
    <vehicle id="veh_500" route="route_S2TL_NE_right" depart="500" departLane="3" departSpeed="8.839006295255517"/>
    <vehicle id="veh_503" route="route_E2TL_SW_left" depart="503" departLane="0" departSpeed="8.61518385712426"/>
    <vehicle id="veh_510" route="route_E2TL_SW_left" depart="510" departLane="2" departSpeed="12.406761252246302"/>
    <vehicle id="veh_511" route="route_W2TL_EN_right" depart="511" departLane="3" departSpeed="9.059157792119827"/>
    <vehicle id="veh_513" route="route_E2TL_SW_left" depart="513" departLane="2" departSpeed="5.102283892173956"/>
    <vehicle id="veh_514" route="route_W2TL_WE_straight" depart="514" departLane="2" departSpeed="10.670201180209757"/>
    <vehicle id="veh_520" route="route_S2TL_EW_left" depart="520" departLane="2" departSpeed="5.023106191242711"/>
    <vehicle id="veh_524" route="route_W2TL_WE_straight" depart="524" departLane="1" departSpeed="6.111296383854774"/>
    <vehicle id="veh_529" route="route_N2TL_ES_left" depart="529" departLane="2" departSpeed="9.096233496095785"/>
    <vehicle id="veh_532" route="route_S2TL_NE_right" depart="532" departLane="0" departSpeed="6.871274849011957"/>
    <vehicle id="veh_534" route="route_S2TL_SN_straight" depart="534" departLane="0" departSpeed="12.09888726133105"/>
    <vehicle id="veh_535" route="route_S2TL_EW_left" depart="535" departLane="2" departSpeed="9.642824876254444"/>
    <vehicle id="veh_538" route="route_N2TL_NS_straight" depart="538" departLane="0" departSpeed="5.345584714630418"/>
    <vehicle id="veh_545" route="route_N2TL_ES_left" depart="545" departLane="1" departSpeed="5.471805863675067"/>
    <vehicle id="veh_546" route="route_N2TL_ES_left" depart="546" departLane="1" departSpeed="10.740275577304535"/>
    <vehicle id="veh_550" route="route_W2TL_WS_left" depart="550" departLane="2" departSpeed="10.895552696443028"/>
    <vehicle id="veh_551" route="route_S2TL_SN_straight" depart="551" departLane="0" departSpeed="6.431334312644003"/>
    <vehicle id="veh_552" route="route_W2TL_WS_left" depart="552" departLane="1" departSpeed="10.904589979298528"/>
    <vehicle id="veh_556" route="route_W2TL_EN_right" depart="556" departLane="2" departSpeed="11.417814231685206"/>
    <vehicle id="veh_561" route="route_W2TL_EN_right" depart="561" departLane="0" departSpeed="12.201024388236881"/>
    <vehicle id="veh_562" route="route_S2TL_EW_left" depart="562" departLane="1" departSpeed="10.448378333557713"/>
    <vehicle id="veh_563" route="route_W2TL_WS_left" depart="563" departLane="0" departSpeed="11.766655368245338"/>
    <vehicle id="veh_566" route="route_N2TL_NS_straight" depart="566" departLane="3" departSpeed="7.5315740590130655"/>
    <vehicle id="veh_567" route="route_N2TL_NS_straight" depart="567" departLane="1" departSpeed="8.822225472069235"/>
    <vehicle id="veh_572" route="route_W2TL_WE_straight" depart="572" departLane="0" departSpeed="9.11064631421716"/>
    <vehicle id="veh_573" route="route_S2TL_SN_straight" depart="573" departLane="2" departSpeed="10.830629703617545"/>
    <vehicle id="veh_574" route="route_N2TL_WE_right" depart="574" departLane="0" departSpeed="7.239145208382759"/>
    <vehicle id="veh_577" route="route_E2TL_NS_right" depart="577" departLane="3" departSpeed="7.258329993832533"/>
    <vehicle id="veh_583" route="route_W2TL_EN_right" depart="583" departLane="0" departSpeed="7.570640193069952"/>
    <vehicle id="veh_587" route="route_E2TL_NS_right" depart="587" departLane="3" departSpeed="10.480942287020822"/>
    <vehicle id="veh_589" route="route_W2TL_WS_left" depart="589" departLane="2" departSpeed="12.7860152390267"/>
    <vehicle id="veh_592" route="route_S2TL_NE_right" depart="592" departLane="1" departSpeed="11.634088906746388"/>
    <vehicle id="veh_593" route="route_S2TL_SN_straight" depart="593" departLane="2" departSpeed="7.031256564957706"/>
    <vehicle id="veh_597" route="route_S2TL_EW_left" depart="597" departLane="3" departSpeed="9.060744760629468"/>
    <vehicle id="veh_600" route="route_S2TL_NE_right" depart="600" departLane="3" departSpeed="10.907426120864166"/>
    <vehicle id="veh_601" route="route_E2TL_NS_right" depart="601" departLane="0" departSpeed="9.944778084354027"/>
    <vehicle id="veh_612" route="route_N2TL_WE_right" depart="612" departLane="3" departSpeed="11.005221137351548"/>
    <vehicle id="veh_614" route="route_N2TL_WE_right" depart="614" departLane="3" departSpeed="8.543562004755032"/>
    <vehicle id="veh_617" route="route_S2TL_SN_straight" depart="617" departLane="1" departSpeed="6.9010895124804765"/>
    <vehicle id="veh_618" route="route_W2TL_WS_left" depart="618" departLane="3" departSpeed="6.165624707921194"/>
    <vehicle id="veh_621" route="route_N2TL_ES_left" depart="621" departLane="1" departSpeed="10.0790540328885"/>
    <vehicle id="veh_626" route="route_W2TL_WE_straight" depart="626" departLane="2" departSpeed="8.066552151674887"/>
    <vehicle id="veh_631" route="route_S2TL_NE_right" depart="631" departLane="1" departSpeed="12.320886007959462"/>
    <vehicle id="veh_633" route="route_N2TL_NS_straight" depart="633" departLane="1" departSpeed="7.327451111662217"/>
    <vehicle id="veh_642" route="route_S2TL_SN_straight" depart="642" departLane="0" departSpeed="7.293296115102599"/>
    <vehicle id="veh_643" route="route_N2TL_NS_straight" depart="643" departLane="1" departSpeed="8.910888353251519"/>
    <vehicle id="veh_644" route="route_W2TL_WS_left" depart="644" departLane="3" departSpeed="11.422882562227388"/>
    <vehicle id="veh_647" route="route_S2TL_SN_straight" depart="647" departLane="0" departSpeed="6.755635268114851"/>
    <vehicle id="veh_649" route="route_N2TL_NS_straight" depart="649" departLane="2" departSpeed="8.694970000407908"/>
    <vehicle id="veh_654" route="route_E2TL_EW_straight" depart="654" departLane="0" departSpeed="5.199221883116979"/>
    <vehicle id="veh_655" route="route_S2TL_SN_straight" depart="655" departLane="1" departSpeed="11.319203338557529"/>
    <vehicle id="veh_665" route="route_N2TL_NS_straight" depart="665" departLane="0" departSpeed="12.171443408176899"/>
    <vehicle id="veh_668" route="route_N2TL_ES_left" depart="668" departLane="2" departSpeed="7.8139583634482666"/>
    <vehicle id="veh_669" route="route_S2TL_NE_right" depart="669" departLane="1" departSpeed="10.029233317190073"/>
    <vehicle id="veh_670" route="route_E2TL_SW_left" depart="670" departLane="2" departSpeed="10.227291466007042"/>
    <vehicle id="veh_673" route="route_S2TL_EW_left" depart="673" departLane="2" departSpeed="5.449034608993249"/>
    <vehicle id="veh_676" route="route_W2TL_WS_left" depart="676" departLane="1" departSpeed="6.362916425869286"/>
    <vehicle id="veh_678" route="route_S2TL_SN_straight" depart="678" departLane="2" departSpeed="5.319142917813712"/>
    <vehicle id="veh_681" route="route_W2TL_EN_right" depart="681" departLane="3" departSpeed="5.188072470104147"/>
    <vehicle id="veh_687" route="route_S2TL_SN_straight" depart="687" departLane="3" departSpeed="8.891271735670209"/>
    <vehicle id="veh_688" route="route_S2TL_SN_straight" depart="688" departLane="2" departSpeed="10.872796381211552"/>
    <vehicle id="veh_690" route="route_E2TL_NS_right" depart="690" departLane="3" departSpeed="8.212338489617562"/>
    <vehicle id="veh_692" route="route_N2TL_ES_left" depart="692" departLane="0" departSpeed="10.003771522544762"/>
    <vehicle id="veh_693" route="route_W2TL_EN_right" depart="693" departLane="0" departSpeed="7.5235576043270465"/>
    <vehicle id="veh_694" route="route_W2TL_WE_straight" depart="694" departLane="1" departSpeed="5.950971979082407"/>
    <vehicle id="veh_701" route="route_W2TL_WE_straight" depart="701" departLane="3" departSpeed="12.614703258077338"/>
    <vehicle id="veh_704" route="route_E2TL_SW_left" depart="704" departLane="2" departSpeed="10.97013790612894"/>
    <vehicle id="veh_705" route="route_E2TL_EW_straight" depart="705" departLane="2" departSpeed="10.251148941477211"/>
    <vehicle id="veh_709" route="route_W2TL_EN_right" depart="709" departLane="1" departSpeed="10.01832387276425"/>
    <vehicle id="veh_711" route="route_W2TL_EN_right" depart="711" departLane="0" departSpeed="9.016560241641542"/>
    <vehicle id="veh_718" route="route_E2TL_EW_straight" depart="718" departLane="2" departSpeed="5.217983116415306"/>
    <vehicle id="veh_719" route="route_N2TL_ES_left" depart="719" departLane="1" departSpeed="11.056194452495566"/>
    <vehicle id="veh_720" route="route_E2TL_EW_straight" depart="720" departLane="1" departSpeed="11.21570274441929"/>